Circuit: * C:\Users\Owner\Desktop\amplifier\ClassDAmplifier\LTSpice\ClassDAmplifier.asc

WARNING: Less than two connections to node OUT1.  This node is used by A2.
WARNING: Less than two connections to node OUT2.  This node is used by A3.
Direct Newton iteration for .op point succeeded.

Date: Mon Aug 24 07:16:10 2020
Total elapsed time: 0.073 seconds.

tnom = 27
temp = 27
method = modified trap
totiter = 2931
traniter = 2926
tranpoints = 1318
accept = 1233
rejected = 85
matrix size = 8
fillins = 0
solver = Normal
Matrix Compiler1: 174 bytes object code size  0.1/0.1/[0.0]
Matrix Compiler2: off  [0.1]/0.1/0.1

